!  This chemkin file was generated by RMG - Reaction Mechanism Generator (http://rmg.mit.edu)
!  The java code was compiled by ant at:
!    2011-08-29T07:56:46
!  The git repository was on the branch:
!    autoxidation_rebased
!  And at the commit with the hash:
!    24416087fa2a9ef7b67df32d1a26ccf17fa9372c
!
!  For details visit:
!   http://github.com/GreenGroup/RMG-Java/tree/244160
!To see changes since then visit:
!   http://github.com/GreenGroup/RMG-Java/compare/244160...master

ELEMENTS H C O N Ne Ar He Si S Cl END
SPECIES
	C10bnzn(1)
	O2(2)
	nDBOOH1(3)
	SPC(53)	! C16H25OJ(53)
	HOJ(54)
	HO2J(5)
	C16H25J(8)
	H2O(100)
	C9H19J(22)
	C7H6O(80)
	SPC(16)	! C16H25J(16)
	SPC(12)	! C16H25J(12)
	C16H25J(9)
	SPC(13)	! C16H25J(13)
	SPC(10)	! C16H25J(10)
	SPC(14)	! C16H25J(14)
	SPC(11)	! C16H25J(11)
	SPC(15)	! C16H25J(15)
	SPC(17)	! C16H25J(17)
	C16H25J(4)
	C16H25J(6)
	SPC(96)	! C16H25OJ(96)
END
THERMO ALL
   300.000  1000.000  5000.000
! The first four sets of polynomial coefficients (Ar, N2, Ne, He) are from         
! THIRD MILLENIUM IDEAL GAS AND CONDENSED PHASE THERMOCHEMICAL DATABASE FOR     
! COMBUSTION WITH UPDATES FROM ACTIVE THERMOCHENICAL TABLES                     
! Authors: Alexander Burcat and Branko Ruscic                                   
!                                                                               
! The rest of the species are estimated by RMG (http://rmg.mit.edu/)            
Ar                L 6/88Ar  1               G   200.000  6000.000 1000.        1
 0.25000000E+01 0.00000000E+00 0.00000000E+00 0.00000000E+00 0.00000000E+00    2
-0.74537500E+03 0.43796749E+01 0.25000000E+01 0.00000000E+00 0.00000000E+00    3
 0.00000000E+00 0.00000000E+00-0.74537500E+03 0.43796749E+01                   4
N2                G 8/02N   2               G   200.000  6000.000 1000.        1
 2.95257637E+00 1.39690040E-03-4.92631603E-07 7.86010195E-11-4.60755204E-15    2
-9.23948688E+02 5.87188762E+00 3.53100528E+00-1.23660988E-04-5.02999433E-07    3
 2.43530612E-09-1.40881235E-12-1.04697628E+03 2.96747038E+00                   4
Ne                L10/90Ne  1               G    200.0   6000.00  1000.0       1
 0.25000000E+01 0.00000000E+00 0.00000000E+00 0.00000000E+00 0.00000000E+00    2
-0.74537500E+03 0.33553227E+01 0.25000000E+01 0.00000000E+00 0.00000000E+00    3
 0.00000000E+00 0.00000000E+00-0.74537498E+03 0.33553227E+01                   4
He REF ELEMENT          He  1               G   200.000  6000.000 1000.        1
 2.50000000E+00 0.00000000E+00 0.00000000E+00 0.00000000E+00 0.00000000E+00    2
-7.45375000E+02 9.28723974E-01 2.50000000E+00 0.00000000E+00 0.00000000E+00    3
 0.00000000E+00 0.00000000E+00-7.45375000E+02 9.28723974E-01 0.00000000E+00    4

!Estimated by RMG using Group Additivity
C10bnzn(1)              C  16H  26          G   250.000  5000.000   995.043    1
 3.57646840E+01 7.38090261E-02-2.64824772E-05 4.28846807E-09-2.57946794E-13    2
-4.33458052E+04-1.65999441E+02 2.20795129E+00 1.03781096E-01 8.65048752E-05    3
-1.77383310E-07 7.20111554E-11-3.14734339E+04 2.18264948E+01                   4

!Primary Thermo Library: GRIMech3.0 (Species ID: s00010295)
O2(2)                   C   0H   0O   2     G   250.000  5000.000   995.043    1
 3.27573492E+00 1.37750101E-03-5.55093355E-07 9.57662136E-11-5.98886255E-15    2
-1.06542288E+03 3.31693511E+00 3.54869986E+00-1.28797020E-03 5.82700881E-06    3
-5.76400113E-09 1.86418279E-12-1.04211210E+03 2.39149311E+00                   4

!Estimated by RMG using Group Additivity
nDBOOH1(3)              C  16H  26O   2     G   250.000  5000.000   995.043    1
 4.13730003E+01 7.42453469E-02-2.67793704E-05 4.34872225E-09-2.62013537E-13    2
-5.78925557E+04-1.92161768E+02 1.86374216E+00 1.23303633E-01 6.47359727E-05    3
-1.67827944E-07 7.08502949E-11-4.45958503E+04 2.55567055E+01                   4

!Estimated by RMG using Group Additivity
SPC(53)                 C  16H  25O   1     G   250.000  5000.000   995.043    1
 3.83939066E+01 7.16448666E-02-2.58326002E-05 4.19724495E-09-2.53013730E-13    2
-3.83831652E+04-1.78026248E+02 2.07518242E+00 1.08427505E-01 8.33587361E-05    3
-1.79266561E-07 7.35555550E-11-2.57486347E+04 2.41787636E+01                   4

!Primary Thermo Library: GRIMech3.0 (Species ID: s00010102)
HOJ(54)                 C   0H   1O   1     G   250.000  5000.000   995.043    1
 2.93119405E+00 9.44009457E-04-1.92099986E-07 1.59260471E-11-3.62890589E-16    2
 2.31037749E+03 2.22634787E+00 3.47847173E+00 1.29552078E-03-4.56835304E-06    3
 5.52497719E-09-2.03195029E-12 2.07514986E+03-1.04595073E+00                   4

!Primary Thermo Library: GRIMech3.0 (Species ID: s00010103)
HO2J(5)                 C   0H   1O   2     G   250.000  5000.000   995.043    1
 3.93891938E+00 2.49134217E-03-7.86894875E-07 1.15425499E-10-6.44483776E-15    2
-2.20825065E+03 8.12605407E-02 3.95968629E+00-2.13114054E-03 1.30237937E-05    3
-1.37219091E-08 4.62191757E-12-1.98767789E+03 1.11030050E+00                   4

!Estimated by RMG using Group Additivity
C16H25J(8)              C  16H  25          G   250.000  5000.000   995.043    1
 3.52276567E+01 7.24578819E-02-2.57178347E-05 4.12778059E-09-2.46719165E-13    2
-2.58075302E+04-1.64381017E+02 2.04608900E+00 1.12496734E-01 5.46452407E-05    3
-1.43995589E-07 6.06563026E-11-1.45828421E+04 1.87574444E+01                   4

!Primary Thermo Library: GRIMech3.0 (Species ID: s00009881)
H2O(100)                C   0H   2O   1     G   250.000  5000.000   995.043    1
 2.83110126E+00 2.78038993E-03-6.99588917E-07 8.21825094E-11-3.71156245E-15    2
-3.15608258E+04 2.86492937E+00 3.95832312E+00-3.20926152E-04 1.81982312E-06    3
-1.61474813E-10-3.05372223E-13-3.18559472E+04-2.92339901E+00                   4

!Estimated by RMG using Group Additivity
C9H19J(22)              C   9H  19          G   250.000  5000.000   995.043    1
 2.10518482E+01 5.05199021E-02-1.80362883E-05 2.91110759E-09-1.74762710E-13    2
-1.89227437E+04-8.43444625E+01 3.06615959E+00 6.86057483E-02 3.64279155E-05    3
-8.83361119E-08 3.65081021E-11-1.26594809E+04 1.58233486E+01                   4

!Estimated by RMG using Group Additivity
C7H6O(80)               C   7H   6O   1     G   250.000  5000.000   995.043    1
 1.60514657E+01 2.12126028E-02-8.22541643E-06 1.40216438E-09-8.71776713E-14    2
-1.78679396E+04-6.78675800E+01 3.61199054E+00 1.99164998E-02 7.10646368E-05    3
-1.03535546E-07 3.92960641E-11-1.28526514E+04 4.84577319E+00                   4

!Estimated by RMG using Group Additivity
SPC(16)                 C  16H  25          G   250.000  5000.000   995.043    1
 3.29675176E+01 7.46070758E-02-2.69254605E-05 4.37532148E-09-2.63796116E-13    2
-1.88059906E+04-1.46729843E+02 2.47975743E+00 1.04094313E-01 6.89258716E-05    3
-1.53844927E-07 6.31056555E-11-8.13112092E+03 2.33569605E+01                   4

!Estimated by RMG using Group Additivity
SPC(12)                 C  16H  25          G   250.000  5000.000   995.043    1
 3.23731684E+01 7.53515418E-02-2.73327056E-05 4.45732741E-09-2.69402672E-13    2
-1.85815890E+04-1.43482204E+02 2.60614636E+00 1.03953051E-01 6.68214236E-05    3
-1.50594136E-07 6.17934553E-11-8.14973703E+03 2.26306326E+01                   4

!Estimated by RMG using Group Additivity
C16H25J(9)              C  16H  25          G   250.000  5000.000   995.043    1
 3.23731684E+01 7.53515418E-02-2.73327056E-05 4.45732741E-09-2.69402672E-13    2
-1.85815890E+04-1.43482204E+02 2.60614636E+00 1.03953051E-01 6.68214236E-05    3
-1.50594136E-07 6.17934553E-11-8.14973703E+03 2.26306326E+01                   4

!Estimated by RMG using Group Additivity
SPC(13)                 C  16H  25          G   250.000  5000.000   995.043    1
 3.23731684E+01 7.53515418E-02-2.73327056E-05 4.45732741E-09-2.69402672E-13    2
-1.85815890E+04-1.43482204E+02 2.60614636E+00 1.03953051E-01 6.68214236E-05    3
-1.50594136E-07 6.17934553E-11-8.14973703E+03 2.26306326E+01                   4

!Estimated by RMG using Group Additivity
SPC(10)                 C  16H  25          G   250.000  5000.000   995.043    1
 3.23731684E+01 7.53515418E-02-2.73327056E-05 4.45732741E-09-2.69402672E-13    2
-1.85815890E+04-1.43482204E+02 2.60614636E+00 1.03953051E-01 6.68214236E-05    3
-1.50594136E-07 6.17934553E-11-8.14973703E+03 2.26306326E+01                   4

!Estimated by RMG using Group Additivity
SPC(14)                 C  16H  25          G   250.000  5000.000   995.043    1
 3.23731684E+01 7.53515418E-02-2.73327056E-05 4.45732741E-09-2.69402672E-13    2
-1.85815890E+04-1.43482204E+02 2.60614636E+00 1.03953051E-01 6.68214236E-05    3
-1.50594136E-07 6.17934553E-11-8.14973703E+03 2.26306326E+01                   4

!Estimated by RMG using Group Additivity
SPC(11)                 C  16H  25          G   250.000  5000.000   995.043    1
 3.23731684E+01 7.53515418E-02-2.73327056E-05 4.45732741E-09-2.69402672E-13    2
-1.85815890E+04-1.43482204E+02 2.60614636E+00 1.03953051E-01 6.68214236E-05    3
-1.50594136E-07 6.17934553E-11-8.14973703E+03 2.26306326E+01                   4

!Estimated by RMG using Group Additivity
SPC(15)                 C  16H  25          G   250.000  5000.000   995.043    1
 3.23731684E+01 7.53515418E-02-2.73327056E-05 4.45732741E-09-2.69402672E-13    2
-1.85815890E+04-1.43482204E+02 2.60614636E+00 1.03953051E-01 6.68214236E-05    3
-1.50594136E-07 6.17934553E-11-8.14973703E+03 2.26306326E+01                   4

!Estimated by RMG using Group Additivity
SPC(17)                 C  16H  25          G   250.000  5000.000   995.043    1
 3.55095849E+01 7.15191059E-02-2.57154299E-05 4.17030137E-09-2.51091099E-13    2
-1.83923590E+04-1.61890890E+02 2.24241743E+00 1.04704700E-01 7.58285750E-05    3
-1.65413291E-07 6.78700818E-11-6.79432675E+03 2.34505359E+01                   4

!Estimated by RMG using Group Additivity
C16H25J(4)              C  16H  25          G   250.000  5000.000   995.043    1
 3.54613634E+01 7.08203792E-02-2.52004121E-05 4.05894939E-09-2.43276666E-13    2
-1.22701827E+04-1.61499397E+02 2.11435708E+00 1.07971051E-01 6.48729167E-05    3
-1.54158897E-07 6.40975872E-11-8.36666383E+02 2.33202917E+01                   4

!Estimated by RMG using Group Additivity
C16H25J(6)              C  16H  25          G   250.000  5000.000   995.043    1
 3.54613634E+01 7.08203792E-02-2.52004121E-05 4.05894939E-09-2.43276666E-13    2
-1.22701827E+04-1.61499397E+02 2.11435708E+00 1.07971051E-01 6.48729167E-05    3
-1.54158897E-07 6.40975872E-11-8.36666383E+02 2.33202917E+01                   4

!Estimated by RMG using Group Additivity
SPC(96)                 C  16H  25O   1     G   250.000  5000.000   995.043    1
 3.50710367E+01 7.50161672E-02-2.72446982E-05 4.44745890E-09-2.68985741E-13    2
-3.98836487E+04-1.55733933E+02 2.43697891E+00 1.10205567E-01 6.44213380E-05    3
-1.53923715E-07 6.38808211E-11-2.86368044E+04 2.54246726E+01                   4

END

REACTIONS	KCAL/MOL	MOLES
SPC(53)+HOJ(54)=nDBOOH1(3)                           2.000e+13 	  0.00 	  0.00 	!R_Recombination estimate: (Average of: (O_pri_rad O_sec_rad))  [ O_rad/NonDe , O_pri_rad ] Diffusion factor=0.648, rate=1.30e+13, Keq=2.52e+14, at T=573K.
C16H25J(8)+HO2J(5)=C10bnzn(1)+O2(2)                  1.750e+10 	  0.00 	 -3.28 	!H_Abstraction estimate: (Average of: (Average of: (Average of: (Average of: (Orad_O_H O_rad/NonDeO)))))  [ C_rad/H/OneDeC , Orad_O_H ] Diffusion factor=0.991, rate=3.08e+11, Keq=7.07e+12, at T=573K.
HO2J(5)+C16H25J(8)=nDBOOH1(3)                        1.000e+13 	  0.00 	  0.00 	!R_Recombination estimate: (Average of: (Y_rad Y_rad))  [ O_rad/NonDe , C_rad/H/Cb/Cs ] Diffusion factor=0.778, rate=7.78e+12, Keq=1.75e+20, at T=573K.
C10bnzn(1)+HOJ(54)=C16H25J(8)+H2O(100)               8.400e+12 	  0.00 	  2.59 	!H_Abstraction exact:   [ C/H2/Cb , O_pri_rad ] Diffusion factor=0.977, rate=8.44e+11, Keq=8.92e+11, at T=573K.
HO2J(5)+HOJ(54)=H2O(100)+O2(2)                       1.750e+10 	  0.00 	 -3.28 	!H_Abstraction estimate: (Average of: (Average of: (Average of: (Orad_O_H O_rad/NonDeO))))  [ Orad_O_H , O_pri_rad ] Diffusion factor=0.990, rate=3.08e+11, Keq=6.30e+24, at T=573K.
C7H6O(80)+C9H19J(22)=SPC(53)                         7.940e+10 	  0.00 	  6.70 	!R_Addition_MultipleBond estimate: (Average of: (Average of: (CO/H2_O C_rad/H2/Cs)))  [ CO/H/De_O , C_rad/H2/Cs ] Diffusion factor=1.00, rate=2.21e+08, Keq=0.00460, at T=573K.
SPC(16)+HO2J(5)=C10bnzn(1)+O2(2)                     1.750e+10 	  0.00 	 -3.28 	!H_Abstraction estimate: (Average of: (Average of: (Average of: (Average of: (Orad_O_H O_rad/NonDeO)))))  [ C_rad/H/NonDeC , Orad_O_H ] Diffusion factor=0.991, rate=3.08e+11, Keq=3.17e+15, at T=573K.
C10bnzn(1)+HOJ(54)=SPC(16)+H2O(100)                  7.900e+06 	  1.90 	  0.16 	!H_Abstraction exact:   [ C/H2/NonDeC , O_pri_rad ] Diffusion factor=0.969, rate=1.16e+12, Keq=1.99e+09, at T=573K.
SPC(16)+C10bnzn(1)=C10bnzn(1)+C16H25J(8)             1.936e+02 	  2.96 	  6.79 	!H_Abstraction estimate: (Average of: (Average of: (C/H2/NonDeC C_methyl && Average of: (Average of: (Average of: (InChI=1/C3H8/c1-3-2/h3H2,1-2H3 InChI=1/C4H9O/c1-4(2)3-5/h5H,3H2,1-2H3))) && Average of: (Average of: (InChI=1/C4H10O/c1-4(2)3-5/h4-5H,3H2,1-2H3/alpha InChI=1/C2H5/c1-2/h1H2,2H3)) && Average of: (Average of: (InChI=1/C4H10O/c1-4(2)3-5/h4-5H,3H2,1-2H3/alpha InChI=1/C3H7/c1-3-2/h3H,1-2H3) && Average of: (Average of: (InChI=1/C4H10O/c1-4(2)3-5/h4-5H,3H2,1-2H3/alpha InChI=1/C3H5O/c1-2-3-4/h2-3H,1H3/c))) && Average of: (C/H2/OneDeC C_methyl) && Average of: (Average of: (InChI=1/C3H6O/c1-2-3-4/h3H,2H2,1H3/beta InChI=1/C4H9O/c1-4(2)3-5/h4-5H,1,3H2,2H3)) && C/H2/TwoDe C_methyl)))  [ C_rad/H/NonDeC , C/H2/Cb ] Diffusion factor=1.00, rate=3.70e+07, Keq=449, at T=573K.
SPC(12)+HO2J(5)=C10bnzn(1)+O2(2)                     1.750e+10 	  0.00 	 -3.28 	!H_Abstraction estimate: (Average of: (Average of: (Average of: (Average of: (Orad_O_H O_rad/NonDeO)))))  [ C_rad/H/NonDeC , Orad_O_H ] Diffusion factor=0.991, rate=3.08e+11, Keq=3.61e+15, at T=573K.
C10bnzn(1)+HOJ(54)=SPC(12)+H2O(100)                  7.900e+06 	  1.90 	  0.16 	!H_Abstraction exact:   [ C/H2/NonDeC , O_pri_rad ] Diffusion factor=0.969, rate=1.16e+12, Keq=1.75e+09, at T=573K.
SPC(12)+C10bnzn(1)=C10bnzn(1)+C16H25J(8)             1.936e+02 	  2.96 	  6.79 	!H_Abstraction estimate: (Average of: (Average of: (C/H2/NonDeC C_methyl && Average of: (Average of: (Average of: (InChI=1/C3H8/c1-3-2/h3H2,1-2H3 InChI=1/C4H9O/c1-4(2)3-5/h5H,3H2,1-2H3))) && Average of: (Average of: (InChI=1/C4H10O/c1-4(2)3-5/h4-5H,3H2,1-2H3/alpha InChI=1/C2H5/c1-2/h1H2,2H3)) && Average of: (Average of: (InChI=1/C4H10O/c1-4(2)3-5/h4-5H,3H2,1-2H3/alpha InChI=1/C3H7/c1-3-2/h3H,1-2H3) && Average of: (Average of: (InChI=1/C4H10O/c1-4(2)3-5/h4-5H,3H2,1-2H3/alpha InChI=1/C3H5O/c1-2-3-4/h2-3H,1H3/c))) && Average of: (C/H2/OneDeC C_methyl) && Average of: (Average of: (InChI=1/C3H6O/c1-2-3-4/h3H,2H2,1H3/beta InChI=1/C4H9O/c1-4(2)3-5/h4-5H,1,3H2,2H3)) && C/H2/TwoDe C_methyl)))  [ C_rad/H/NonDeC , C/H2/Cb ] Diffusion factor=1.00, rate=3.70e+07, Keq=511, at T=573K.
SPC(12)=C16H25J(8)                                   2.720e+10 	 -0.66 	  14.28 	!intra_H_migration estimate: (Average of: (R5H_SSSS C_rad_out_single Cs_H_out_1H))  [ R5H_SSSS , C_rad_out_H/NonDeC , Cs_H_out_H/OneDe ] Unimolecular: no diffusion limitation. Diffusion factor=1.00, rate=1.47e+03, Keq=511, at T=573K.
SPC(12)+C10bnzn(1)=C10bnzn(1)+SPC(16)                3.040e+01 	  3.19 	  10.31 	!H_Abstraction exact:   [ C_rad/H/NonDeC , C/H2/NonDeC ] Diffusion factor=1.00, rate=1.12e+06, Keq=1.14, at T=573K.
SPC(12)=SPC(16)                                      2.720e+10 	 -0.66 	  14.28 	!intra_H_migration estimate: (Average of: (R5H_SSSS C_rad_out_single Cs_H_out_1H))  [ R5H_SSSS , C_rad_out_H/NonDeC , Cs_H_out_H/NonDeC ] Unimolecular: no diffusion limitation. Diffusion factor=1.00, rate=1.47e+03, Keq=1.14, at T=573K.
C16H25J(9)+HO2J(5)=C10bnzn(1)+O2(2)                  1.750e+10 	  0.00 	 -3.28 	!H_Abstraction estimate: (Average of: (Average of: (Average of: (Average of: (Orad_O_H O_rad/NonDeO)))))  [ C_rad/H/NonDeC , Orad_O_H ] Diffusion factor=0.991, rate=3.08e+11, Keq=3.61e+15, at T=573K.
C10bnzn(1)+HOJ(54)=C16H25J(9)+H2O(100)               7.900e+06 	  1.90 	  0.16 	!H_Abstraction exact:   [ C/H2/NonDeC , O_pri_rad ] Diffusion factor=0.969, rate=1.16e+12, Keq=1.75e+09, at T=573K.
C16H25J(9)+C10bnzn(1)=C10bnzn(1)+C16H25J(8)          1.936e+02 	  2.96 	  6.79 	!H_Abstraction estimate: (Average of: (Average of: (C/H2/NonDeC C_methyl && Average of: (Average of: (Average of: (InChI=1/C3H8/c1-3-2/h3H2,1-2H3 InChI=1/C4H9O/c1-4(2)3-5/h5H,3H2,1-2H3))) && Average of: (Average of: (InChI=1/C4H10O/c1-4(2)3-5/h4-5H,3H2,1-2H3/alpha InChI=1/C2H5/c1-2/h1H2,2H3)) && Average of: (Average of: (InChI=1/C4H10O/c1-4(2)3-5/h4-5H,3H2,1-2H3/alpha InChI=1/C3H7/c1-3-2/h3H,1-2H3) && Average of: (Average of: (InChI=1/C4H10O/c1-4(2)3-5/h4-5H,3H2,1-2H3/alpha InChI=1/C3H5O/c1-2-3-4/h2-3H,1H3/c))) && Average of: (C/H2/OneDeC C_methyl) && Average of: (Average of: (InChI=1/C3H6O/c1-2-3-4/h3H,2H2,1H3/beta InChI=1/C4H9O/c1-4(2)3-5/h4-5H,1,3H2,2H3)) && C/H2/TwoDe C_methyl)))  [ C_rad/H/NonDeC , C/H2/Cb ] Diffusion factor=1.00, rate=3.70e+07, Keq=511, at T=573K.
C16H25J(9)=C16H25J(8)                                1.682e+10 	  0.35 	  29.90 	!intra_H_migration exact:   [ Others-R2H_S , C_rad_out_H/NonDeC , Cs_H_out_H/OneDe ] Unimolecular: no diffusion limitation. Diffusion factor=1.00, rate=0.611, Keq=511, at T=573K.
C16H25J(9)+C10bnzn(1)=C10bnzn(1)+SPC(16)             3.040e+01 	  3.19 	  10.31 	!H_Abstraction exact:   [ C_rad/H/NonDeC , C/H2/NonDeC ] Diffusion factor=1.00, rate=1.12e+06, Keq=1.14, at T=573K.
C10bnzn(1)+SPC(12)=C16H25J(9)+C10bnzn(1)             4.560e+01 	  3.19 	  10.31 	!H_Abstraction exact:   [ C/H2/NonDeC , C_rad/H/NonDeC ] Diffusion factor=0.00, rate=2.23e+06, Keq=1.00, at T=573K.
SPC(12)=C16H25J(9)                                   9.660e+09 	  0.13 	  20.70 	!intra_H_migration estimate: (Average of: (R4H_SSS C_rad_out_single Cs_H_out_1H))  [ R4H_SSS , C_rad_out_H/NonDeC , Cs_H_out_H/NonDeC ] Unimolecular: no diffusion limitation. Diffusion factor=1.00, rate=187, Keq=1.00, at T=573K.
SPC(13)+HO2J(5)=C10bnzn(1)+O2(2)                     1.750e+10 	  0.00 	 -3.28 	!H_Abstraction estimate: (Average of: (Average of: (Average of: (Average of: (Orad_O_H O_rad/NonDeO)))))  [ C_rad/H/NonDeC , Orad_O_H ] Diffusion factor=0.991, rate=3.08e+11, Keq=3.61e+15, at T=573K.
C10bnzn(1)+HOJ(54)=SPC(13)+H2O(100)                  7.900e+06 	  1.90 	  0.16 	!H_Abstraction exact:   [ C/H2/NonDeC , O_pri_rad ] Diffusion factor=0.969, rate=1.16e+12, Keq=1.75e+09, at T=573K.
SPC(13)+C10bnzn(1)=C10bnzn(1)+C16H25J(8)             1.936e+02 	  2.96 	  6.79 	!H_Abstraction estimate: (Average of: (Average of: (C/H2/NonDeC C_methyl && Average of: (Average of: (Average of: (InChI=1/C3H8/c1-3-2/h3H2,1-2H3 InChI=1/C4H9O/c1-4(2)3-5/h5H,3H2,1-2H3))) && Average of: (Average of: (InChI=1/C4H10O/c1-4(2)3-5/h4-5H,3H2,1-2H3/alpha InChI=1/C2H5/c1-2/h1H2,2H3)) && Average of: (Average of: (InChI=1/C4H10O/c1-4(2)3-5/h4-5H,3H2,1-2H3/alpha InChI=1/C3H7/c1-3-2/h3H,1-2H3) && Average of: (Average of: (InChI=1/C4H10O/c1-4(2)3-5/h4-5H,3H2,1-2H3/alpha InChI=1/C3H5O/c1-2-3-4/h2-3H,1H3/c))) && Average of: (C/H2/OneDeC C_methyl) && Average of: (Average of: (InChI=1/C3H6O/c1-2-3-4/h3H,2H2,1H3/beta InChI=1/C4H9O/c1-4(2)3-5/h4-5H,1,3H2,2H3)) && C/H2/TwoDe C_methyl)))  [ C_rad/H/NonDeC , C/H2/Cb ] Diffusion factor=1.00, rate=3.70e+07, Keq=511, at T=573K.