!  This chemkin file was generated by RMG - Reaction Mechanism Generator (http://rmg.mit.edu)
!  The java code was compiled by ant at:
!    2011-08-29T07:56:46
!  The git repository was on the branch:
!    autoxidation_rebased
!  And at the commit with the hash:
!    24416087fa2a9ef7b67df32d1a26ccf17fa9372c
!
!  For details visit:
!   http://github.com/GreenGroup/RMG-Java/tree/244160
!To see changes since then visit:
!   http://github.com/GreenGroup/RMG-Java/compare/244160...master

ELEMENTS H C O N Ne Ar He Si S Cl END
SPECIES
	C10bnzn(1)
	O2(2)
	nDBOOH1(3)
	SPC(53)	! C16H25OJ(53)
	HOJ(54)
	HO2J(5)
	H2O(100)
	C16H25J(8)
	C9H19J(22)
	C7H6O(80)
	SPC(16)	! C16H25J(16)
	SPC(12)	! C16H25J(12)
	SPC(15)	! C16H25J(15)
	SPC(11)	! C16H25J(11)
	SPC(135)	! C9H19O2J(135)
	SPC(183)	! C16H25O2J(183)
	SPC(235)	! C16H25O2J(235)
	SPC(259)	! C16H25O2J(259)
	SPC(210)	! C16H25O2J(210)
	SPC(39)	! C16H25O2J(39)
	C16H25J(9)
	SPC(466)	! C16H25O2J(466)
	SPC(138)	! C9H20O2(138)
	SPC(115)	! C16H24(115)
	SPC(13)	! C16H25J(13)
	SPC(562)	! C16H25O2J(562)
	H2O2(101)
	SPC(10)	! C16H25J(10)
	SPC(616)	! C16H25O2J(616)
	SPC(14)	! C16H25J(14)
	SPC(669)	! C16H25O2J(669)
	SPC(185)	! C16H26O2(185)
	SPC(237)	! C16H26O2(237)
	SPC(671)	! C16H26O2(671)
	SPC(618)	! C16H26O2(618)
	SPC(261)	! C16H26O2(261)
	SPC(564)	! C16H26O2(564)
	SPC(212)	! C16H26O2(212)
	SPC(468)	! C16H26O2(468)
	SPC(45)	! C16H25O2J(45)
	SPC(861)	! C16H25O4J(861)
	SPC(863)	! C16H26O4(863)
	SPC(443)	! C23H31O3J(443)
	SPC(155)	! C7H5OJ(155)
	SPC(972)	! C7H5O3J(972)
	SPC(975)	! C7H6O3(975)
	SPC(43)	! C16H25O2J(43)
	SPC(81)	! C16H24O(81)
END
THERMO ALL
   300.000  1000.000  5000.000
! The first four sets of polynomial coefficients (Ar, N2, Ne, He) are from         
! THIRD MILLENIUM IDEAL GAS AND CONDENSED PHASE THERMOCHEMICAL DATABASE FOR     
! COMBUSTION WITH UPDATES FROM ACTIVE THERMOCHENICAL TABLES                     
! Authors: Alexander Burcat and Branko Ruscic                                   
!                                                                               
! The rest of the species are estimated by RMG (http://rmg.mit.edu/)            
Ar                L 6/88Ar  1               G   200.000  6000.000 1000.        1
 0.25000000E+01 0.00000000E+00 0.00000000E+00 0.00000000E+00 0.00000000E+00    2
-0.74537500E+03 0.43796749E+01 0.25000000E+01 0.00000000E+00 0.00000000E+00    3
 0.00000000E+00 0.00000000E+00-0.74537500E+03 0.43796749E+01                   4
N2                G 8/02N   2               G   200.000  6000.000 1000.        1
 2.95257637E+00 1.39690040E-03-4.92631603E-07 7.86010195E-11-4.60755204E-15    2
-9.23948688E+02 5.87188762E+00 3.53100528E+00-1.23660988E-04-5.02999433E-07    3
 2.43530612E-09-1.40881235E-12-1.04697628E+03 2.96747038E+00                   4
Ne                L10/90Ne  1               G    200.0   6000.00  1000.0       1
 0.25000000E+01 0.00000000E+00 0.00000000E+00 0.00000000E+00 0.00000000E+00    2
-0.74537500E+03 0.33553227E+01 0.25000000E+01 0.00000000E+00 0.00000000E+00    3
 0.00000000E+00 0.00000000E+00-0.74537498E+03 0.33553227E+01                   4
He REF ELEMENT          He  1               G   200.000  6000.000 1000.        1
 2.50000000E+00 0.00000000E+00 0.00000000E+00 0.00000000E+00 0.00000000E+00    2
-7.45375000E+02 9.28723974E-01 2.50000000E+00 0.00000000E+00 0.00000000E+00    3
 0.00000000E+00 0.00000000E+00-7.45375000E+02 9.28723974E-01 0.00000000E+00    4

!Estimated by RMG using Group Additivity
C10bnzn(1)              C  16H  26          G   250.000  5000.000   995.043    1
 3.57646840E+01 7.38090261E-02-2.64824772E-05 4.28846807E-09-2.57946794E-13    2
-4.33458052E+04-1.65999441E+02 2.20795129E+00 1.03781096E-01 8.65048752E-05    3
-1.77383310E-07 7.20111554E-11-3.14734339E+04 2.18264948E+01                   4

!Primary Thermo Library: GRIMech3.0 (Species ID: s00010295)
O2(2)                   C   0H   0O   2     G   250.000  5000.000   995.043    1
 3.27573492E+00 1.37750101E-03-5.55093355E-07 9.57662136E-11-5.98886255E-15    2
-1.06542288E+03 3.31693511E+00 3.54869986E+00-1.28797020E-03 5.82700881E-06    3
-5.76400113E-09 1.86418279E-12-1.04211210E+03 2.39149311E+00                   4

!Estimated by RMG using Group Additivity
nDBOOH1(3)              C  16H  26O   2     G   250.000  5000.000   995.043    1
 4.13730003E+01 7.42453469E-02-2.67793704E-05 4.34872225E-09-2.62013537E-13    2
-5.78925557E+04-1.92161768E+02 1.86374216E+00 1.23303633E-01 6.47359727E-05    3
-1.67827944E-07 7.08502949E-11-4.45958503E+04 2.55567055E+01                   4

!Estimated by RMG using Group Additivity
SPC(53)                 C  16H  25O   1     G   250.000  5000.000   995.043    1
 3.83939066E+01 7.16448666E-02-2.58326002E-05 4.19724495E-09-2.53013730E-13    2
-3.83831652E+04-1.78026248E+02 2.07518242E+00 1.08427505E-01 8.33587361E-05    3
-1.79266561E-07 7.35555550E-11-2.57486347E+04 2.41787636E+01                   4

!Primary Thermo Library: GRIMech3.0 (Species ID: s00010102)
HOJ(54)                 C   0H   1O   1     G   250.000  5000.000   995.043    1
 2.93119405E+00 9.44009457E-04-1.92099986E-07 1.59260471E-11-3.62890589E-16    2
 2.31037749E+03 2.22634787E+00 3.47847173E+00 1.29552078E-03-4.56835304E-06    3
 5.52497719E-09-2.03195029E-12 2.07514986E+03-1.04595073E+00                   4

!Primary Thermo Library: GRIMech3.0 (Species ID: s00010103)
HO2J(5)                 C   0H   1O   2     G   250.000  5000.000   995.043    1
 3.93891938E+00 2.49134217E-03-7.86894875E-07 1.15425499E-10-6.44483776E-15    2
-2.20825065E+03 8.12605407E-02 3.95968629E+00-2.13114054E-03 1.30237937E-05    3
-1.37219091E-08 4.62191757E-12-1.98767789E+03 1.11030050E+00                   4

!Primary Thermo Library: GRIMech3.0 (Species ID: s00009881)
H2O(100)                C   0H   2O   1     G   250.000  5000.000   995.043    1
 2.83110126E+00 2.78038993E-03-6.99588917E-07 8.21825094E-11-3.71156245E-15    2
-3.15608258E+04 2.86492937E+00 3.95832312E+00-3.20926152E-04 1.81982312E-06    3
-1.61474813E-10-3.05372223E-13-3.18559472E+04-2.92339901E+00                   4

!Estimated by RMG using Group Additivity
C16H25J(8)              C  16H  25          G   250.000  5000.000   995.043    1
 3.52276567E+01 7.24578819E-02-2.57178347E-05 4.12778059E-09-2.46719165E-13    2
-2.58075302E+04-1.64381017E+02 2.04608900E+00 1.12496734E-01 5.46452407E-05    3
-1.43995589E-07 6.06563026E-11-1.45828421E+04 1.87574444E+01                   4

!Estimated by RMG using Group Additivity
C9H19J(22)              C   9H  19          G   250.000  5000.000   995.043    1
 2.10518482E+01 5.05199021E-02-1.80362883E-05 2.91110759E-09-1.74762710E-13    2
-1.89227437E+04-8.43444625E+01 3.06615959E+00 6.86057483E-02 3.64279155E-05    3
-8.83361119E-08 3.65081021E-11-1.26594809E+04 1.58233486E+01                   4

!Estimated by RMG using Group Additivity
C7H6O(80)               C   7H   6O   1     G   250.000  5000.000   995.043    1
 1.60514657E+01 2.12126028E-02-8.22541643E-06 1.40216438E-09-8.71776713E-14    2
-1.78679396E+04-6.78675800E+01 3.61199054E+00 1.99164998E-02 7.10646368E-05    3
-1.03535546E-07 3.92960641E-11-1.28526514E+04 4.84577319E+00                   4

!Estimated by RMG using Group Additivity
SPC(16)                 C  16H  25          G   250.000  5000.000   995.043    1
 3.29675176E+01 7.46070758E-02-2.69254605E-05 4.37532148E-09-2.63796116E-13    2
-1.88059906E+04-1.46729843E+02 2.47975743E+00 1.04094313E-01 6.89258716E-05    3
-1.53844927E-07 6.31056555E-11-8.13112092E+03 2.33569605E+01                   4

!Estimated by RMG using Group Additivity
SPC(12)                 C  16H  25          G   250.000  5000.000   995.043    1
 3.23731684E+01 7.53515418E-02-2.73327056E-05 4.45732741E-09-2.69402672E-13    2
-1.85815890E+04-1.43482204E+02 2.60614636E+00 1.03953051E-01 6.68214236E-05    3
-1.50594136E-07 6.17934553E-11-8.14973703E+03 2.26306326E+01                   4

!Estimated by RMG using Group Additivity
SPC(15)                 C  16H  25          G   250.000  5000.000   995.043    1
 3.23731684E+01 7.53515418E-02-2.73327056E-05 4.45732741E-09-2.69402672E-13    2
-1.85815890E+04-1.43482204E+02 2.60614636E+00 1.03953051E-01 6.68214236E-05    3
-1.50594136E-07 6.17934553E-11-8.14973703E+03 2.26306326E+01                   4

!Estimated by RMG using Group Additivity
SPC(11)                 C  16H  25          G   250.000  5000.000   995.043    1
 3.23731684E+01 7.53515418E-02-2.73327056E-05 4.45732741E-09-2.69402672E-13    2
-1.85815890E+04-1.43482204E+02 2.60614636E+00 1.03953051E-01 6.68214236E-05    3
-1.50594136E-07 6.17934553E-11-8.14973703E+03 2.26306326E+01                   4

!Estimated by RMG using Group Additivity
SPC(135)                C   9H  19O   2     G   250.000  5000.000   995.043    1
 2.50329078E+01 5.22827536E-02-1.95292936E-05 3.25515955E-09-1.99757353E-13    2
-3.79300060E+04-1.01998622E+02 3.31614857E+00 8.58387801E-02 1.09031895E-05    3
-7.14148402E-08 3.21984987E-11-3.09475723E+04 1.60336042E+01                   4

!Estimated by RMG using Group Additivity
SPC(183)                C  16H  25O   2     G   250.000  5000.000   995.043    1
 3.94424098E+01 7.29414924E-02-2.59331729E-05 4.17075573E-09-2.49674025E-13    2
-3.93232392E+04-1.79884010E+02 1.80375662E+00 1.25269200E-01 4.43893035E-05    3
-1.42910059E-07 6.18196215E-11-2.69329209E+04 2.61352631E+01                   4

!Estimated by RMG using Group Additivity
SPC(235)                C  16H  25O   2     G   250.000  5000.000   995.043    1
 3.94424098E+01 7.29414924E-02-2.59331729E-05 4.17075573E-09-2.49674025E-13    2
-3.93232392E+04-1.79884010E+02 1.80375662E+00 1.25269200E-01 4.43893035E-05    3
-1.42910059E-07 6.18196215E-11-2.69329209E+04 2.61352631E+01                   4

!Estimated by RMG using Group Additivity
SPC(259)                C  16H  25O   2     G   250.000  5000.000   995.043    1
 3.94424098E+01 7.29414924E-02-2.59331729E-05 4.17075573E-09-2.49674025E-13    2
-3.93232392E+04-1.79884010E+02 1.80375662E+00 1.25269200E-01 4.43893035E-05    3
-1.42910059E-07 6.18196215E-11-2.69329209E+04 2.61352631E+01                   4

!Estimated by RMG using Group Additivity
SPC(210)                C  16H  25O   2     G   250.000  5000.000   995.043    1
 3.94424098E+01 7.29414924E-02-2.59331729E-05 4.17075573E-09-2.49674025E-13    2
-3.93232392E+04-1.79884010E+02 1.80375662E+00 1.25269200E-01 4.43893035E-05    3
-1.42910059E-07 6.18196215E-11-2.69329209E+04 2.61352631E+01                   4

!Estimated by RMG using Group Additivity
SPC(39)                 C  16H  25O   2     G   250.000  5000.000   995.043    1
 3.93281701E+01 7.33811309E-02-2.62825804E-05 4.24850316E-09-2.55207399E-13    2
-3.88148686E+04-1.79535200E+02 1.91369136E+00 1.21552533E-01 5.52124514E-05    3
-1.53605444E-07 6.53467977E-11-2.63080155E+04 2.62134267E+01                   4

!Estimated by RMG using Group Additivity
C16H25J(9)              C  16H  25          G   250.000  5000.000   995.043    1
 3.23731684E+01 7.53515418E-02-2.73327056E-05 4.45732741E-09-2.69402672E-13    2
-1.85815890E+04-1.43482204E+02 2.60614636E+00 1.03953051E-01 6.68214236E-05    3
-1.50594136E-07 6.17934553E-11-8.14973703E+03 2.26306326E+01                   4

!Estimated by RMG using Group Additivity
SPC(466)                C  16H  25O   2     G   250.000  5000.000   995.043    1
 3.94424098E+01 7.29414924E-02-2.59331729E-05 4.17075573E-09-2.49674025E-13    2
-3.93232392E+04-1.79884010E+02 1.80375662E+00 1.25269200E-01 4.43893035E-05    3
-1.42910059E-07 6.18196215E-11-2.69329209E+04 2.61352631E+01                   4

!Estimated by RMG using Group Additivity
SPC(138)                C   9H  20O   2     G   250.000  5000.000   995.043    1
 2.70777380E+01 5.31469695E-02-2.00260835E-05 3.35537863E-09-2.06563491E-13    2
-5.70076931E+04-1.14625190E+02 3.26619937E+00 8.75898807E-02 2.04267108E-05    3
-8.56373402E-08 3.77019959E-11-4.92354071E+04 1.53768830E+01                   4

!Estimated by RMG using Group Additivity
SPC(115)                C  16H  24          G   250.000  5000.000   995.043    1
 3.53752816E+01 6.91278701E-02-2.46548810E-05 3.97530308E-09-2.38388072E-13    2
-2.99611305E+04-1.64023257E+02 2.12163523E+00 1.02181435E-01 7.72052468E-05    3
-1.65898538E-07 6.79754192E-11-1.83619437E+04 2.12723266E+01                   4

!Estimated by RMG using Group Additivity
SPC(13)                 C  16H  25          G   250.000  5000.000   995.043    1
 3.23731684E+01 7.53515418E-02-2.73327056E-05 4.45732741E-09-2.69402672E-13    2
-1.85815890E+04-1.43482204E+02 2.60614636E+00 1.03953051E-01 6.68214236E-05    3
-1.50594136E-07 6.17934553E-11-8.14973703E+03 2.26306326E+01                   4

!Estimated by RMG using Group Additivity
SPC(562)                C  16H  25O   2     G   250.000  5000.000   995.043    1
 3.94424098E+01 7.29414924E-02-2.59331729E-05 4.17075573E-09-2.49674025E-13    2
-3.93232392E+04-1.79884010E+02 1.80375662E+00 1.25269200E-01 4.43893035E-05    3
-1.42910059E-07 6.18196215E-11-2.69329209E+04 2.61352631E+01                   4

!Primary Thermo Library: GRIMech3.0 (Species ID: s00009882)
H2O2(101)               C   0H   2O   2     G   250.000  5000.000   995.043    1
 4.67839384E+00 3.94739445E-03-1.26880126E-06 1.89252448E-10-1.07219649E-14    2
-2.03811871E+04-3.99500456E+00 3.89827164E+00 1.99039933E-03 9.35892035E-06    3
-1.20750954E-08 4.36302224E-12-1.99738031E+04 1.03170293E+00                   4

!Estimated by RMG using Group Additivity
SPC(10)                 C  16H  25          G   250.000  5000.000   995.043    1
 3.23731684E+01 7.53515418E-02-2.73327056E-05 4.45732741E-09-2.69402672E-13    2
-1.85815890E+04-1.43482204E+02 2.60614636E+00 1.03953051E-01 6.68214236E-05    3
-1.50594136E-07 6.17934553E-11-8.14973703E+03 2.26306326E+01                   4

!Estimated by RMG using Group Additivity
SPC(616)                C  16H  25O   2     G   250.000  5000.000   995.043    1
 3.94424098E+01 7.29414924E-02-2.59331729E-05 4.17075573E-09-2.49674025E-13    2
-3.93232392E+04-1.79884010E+02 1.80375662E+00 1.25269200E-01 4.43893035E-05    3
-1.42910059E-07 6.18196215E-11-2.69329209E+04 2.61352631E+01                   4

!Estimated by RMG using Group Additivity
SPC(14)                 C  16H  25          G   250.000  5000.000   995.043    1
 3.23731684E+01 7.53515418E-02-2.73327056E-05 4.45732741E-09-2.69402672E-13    2
-1.85815890E+04-1.43482204E+02 2.60614636E+00 1.03953051E-01 6.68214236E-05    3
-1.50594136E-07 6.17934553E-11-8.14973703E+03 2.26306326E+01                   4

!Estimated by RMG using Group Additivity
SPC(669)                C  16H  25O   2     G   250.000  5000.000   995.043    1
 3.94424098E+01 7.29414924E-02-2.59331729E-05 4.17075573E-09-2.49674025E-13    2
-3.93232392E+04-1.79884010E+02 1.80375662E+00 1.25269200E-01 4.43893035E-05    3
-1.42910059E-07 6.18196215E-11-2.69329209E+04 2.61352631E+01                   4

!Estimated by RMG using Group Additivity
SPC(185)                C  16H  26O   2     G   250.000  5000.000   995.043    1
 4.14872400E+01 7.38057083E-02-2.64299629E-05 4.27097481E-09-2.56480164E-13    2
-5.84009263E+04-1.92510579E+02 1.75380742E+00 1.27020301E-01 5.39128249E-05    3
-1.57132559E-07 6.73231188E-11-4.52207556E+04 2.54785420E+01                   4

!Estimated by RMG using Group Additivity
SPC(237)                C  16H  26O   2     G   250.000  5000.000   995.043    1
 4.14872400E+01 7.38057083E-02-2.64299629E-05 4.27097481E-09-2.56480164E-13    2
-5.84009263E+04-1.92510579E+02 1.75380742E+00 1.27020301E-01 5.39128249E-05    3
-1.57132559E-07 6.73231188E-11-4.52207556E+04 2.54785420E+01                   4

!Estimated by RMG using Group Additivity
SPC(671)                C  16H  26O   2     G   250.000  5000.000   995.043    1
 4.14872400E+01 7.38057083E-02-2.64299629E-05 4.27097481E-09-2.56480164E-13    2
-5.84009263E+04-1.92510579E+02 1.75380742E+00 1.27020301E-01 5.39128249E-05    3
-1.57132559E-07 6.73231188E-11-4.52207556E+04 2.54785420E+01                   4

!Estimated by RMG using Group Additivity
SPC(618)                C  16H  26O   2     G   250.000  5000.000   995.043    1
 4.14872400E+01 7.38057083E-02-2.64299629E-05 4.27097481E-09-2.56480164E-13    2
-5.84009263E+04-1.92510579E+02 1.75380742E+00 1.27020301E-01 5.39128249E-05    3
-1.57132559E-07 6.73231188E-11-4.52207556E+04 2.54785420E+01                   4

!Estimated by RMG using Group Additivity
SPC(261)                C  16H  26O   2     G   250.000  5000.000   995.043    1
 4.14872400E+01 7.38057083E-02-2.64299629E-05 4.27097481E-09-2.56480164E-13    2
-5.84009263E+04-1.92510579E+02 1.75380742E+00 1.27020301E-01 5.39128249E-05    3
-1.57132559E-07 6.73231188E-11-4.52207556E+04 2.54785420E+01                   4

!Estimated by RMG using Group Additivity
SPC(564)                C  16H  26O   2     G   250.000  5000.000   995.043    1
 4.14872400E+01 7.38057083E-02-2.64299629E-05 4.27097481E-09-2.56480164E-13    2
-5.84009263E+04-1.92510579E+02 1.75380742E+00 1.27020301E-01 5.39128249E-05    3
-1.57132559E-07 6.73231188E-11-4.52207556E+04 2.54785420E+01                   4

!Estimated by RMG using Group Additivity
SPC(212)                C  16H  26O   2     G   250.000  5000.000   995.043    1
 4.14872400E+01 7.38057083E-02-2.64299629E-05 4.27097481E-09-2.56480164E-13    2
-5.84009263E+04-1.92510579E+02 1.75380742E+00 1.27020301E-01 5.39128249E-05    3
-1.57132559E-07 6.73231188E-11-4.52207556E+04 2.54785420E+01                   4

!Estimated by RMG using Group Additivity
SPC(468)                C  16H  26O   2     G   250.000  5000.000   995.043    1
 4.14872400E+01 7.38057083E-02-2.64299629E-05 4.27097481E-09-2.56480164E-13    2
-5.84009263E+04-1.92510579E+02 1.75380742E+00 1.27020301E-01 5.39128249E-05    3
-1.57132559E-07 6.73231188E-11-4.52207556E+04 2.54785420E+01                   4

!Estimated by RMG using Group Additivity
SPC(45)                 C  16H  25O   2     G   250.000  5000.000   995.043    1
 3.79814848E+01 7.57878625E-02-2.76295989E-05 4.51758159E-09-2.73469415E-13    2
-3.31283395E+04-1.69644531E+02 2.26193723E+00 1.23475589E-01 4.50525211E-05    3
-1.41038769E-07 6.06325949E-11-2.12721534E+04 2.63608434E+01                   4

!Estimated by RMG using Group Additivity
SPC(861)                C  16H  25O   4     G   250.000  5000.000   995.043    1
 4.50507262E+01 7.33778131E-02-2.62300661E-05 4.23100991E-09-2.53740768E-13    2
-5.38699898E+04-2.06046338E+02 1.45954749E+00 1.44791738E-01 2.26204011E-05    3
-1.33354692E-07 6.06587610E-11-4.00553373E+04 2.98654739E+01                   4

!Estimated by RMG using Group Additivity
SPC(863)                C  16H  26O   4     G   250.000  5000.000   995.043    1
 4.70955564E+01 7.42420290E-02-2.67268561E-05 4.33122899E-09-2.60546906E-13    2
-7.29476769E+04-2.18672906E+02 1.40959829E+00 1.46542838E-01 3.21439224E-05    3
-1.47577192E-07 6.61622583E-11-5.83431720E+04 2.92087527E+01                   4

!Estimated by RMG using Group Additivity
SPC(443)                C  23H  31O   3     G   250.000  5000.000   995.043    1
 5.72561180E+01 9.56844097E-02-3.52287522E-05 5.79827306E-09-3.52449365E-13    2
-5.36943341E+04-2.75374303E+02 1.24999336E+00 1.64421412E-01 9.69262174E-05    3
-2.40709793E-07 1.01269788E-10-3.48057983E+04 3.34516087E+01                   4

!Estimated by RMG using Group Additivity
SPC(155)                C   7H   5O   1     G   250.000  5000.000   995.043    1
 1.57493494E+01 1.90191221E-02-7.51329321E-06 1.29506124E-09-8.10748301E-14    2
 1.00381662E+03-6.46789373E+01 3.66034054E+00 2.05023815E-02 6.12733311E-05    3
-9.23754322E-08 3.54085496E-11 5.74201950E+03 5.30349766E+00                   4

!Estimated by RMG using Group Additivity
SPC(972)                C   7H   5O   3     G   250.000  5000.000   995.043    1
 1.91614420E+01 2.03188503E-02-7.29668711E-06 1.18071152E-09-7.09063606E-14    2
-1.91468485E+04-7.72550062E+01 3.03828293E+00 3.74683037E-02 3.87038875E-05    3
-7.77797029E-08 3.18626450E-11-1.35785477E+04 1.23068404E+01                   4

!Estimated by RMG using Group Additivity
SPC(975)                C   7H   6O   3     G   250.000  5000.000   995.043    1
 2.12062722E+01 2.11830662E-02-7.79347708E-06 1.28093061E-09-7.77124990E-14    2
-4.33221604E+04-8.98815743E+01 2.98833373E+00 3.92194043E-02 4.82274088E-05    3
-9.20022029E-08 3.73661422E-11-3.69640073E+04 1.16501193E+01                   4

!Estimated by RMG using Group Additivity
SPC(43)                 C  16H  25O   2     G   250.000  5000.000   995.043    1
 3.91252116E+01 7.47915936E-02-2.73102153E-05 4.47011314E-09-2.70778075E-13    2
-3.43931970E+04-1.77400677E+02 2.19474218E+00 1.24892016E-01 4.54358591E-05    3
-1.43608731E-07 6.18920509E-11-2.21744851E+04 2.50514157E+01                   4

!Estimated by RMG using Group Additivity
SPC(81)                 C  16H  24O   1     G   250.000  5000.000   995.043    1
 3.55346203E+01 7.25481580E-02-2.66363639E-05 4.38177727E-09-2.66413346E-13    2
-5.76558469E+04-1.61581453E+02 2.55610589E+00 1.13284519E-01 5.03932707E-05    3
-1.39979338E-07 5.93072327E-11-4.65465080E+04 2.02018359E+01                   4

END

REACTIONS	KCAL/MOL	MOLES
SPC(53)+HOJ(54)=nDBOOH1(3)                           2.000e+13 	  0.00 	  0.00 	!R_Recombination estimate: (Average of: (O_pri_rad O_sec_rad))  [ O_rad/NonDe , O_pri_rad ] Diffusion factor=0.648, rate=1.30e+13, Keq=2.52e+14, at T=573K.
HO2J(5)+HOJ(54)=H2O(100)+O2(2)                       1.750e+10 	  0.00 	 -3.28 	!H_Abstraction estimate: (Average of: (Average of: (Average of: (Orad_O_H O_rad/NonDeO))))  [ Orad_O_H , O_pri_rad ]
C16H25J(8)+HO2J(5)=C10bnzn(1)+O2(2)                  1.750e+10 	  0.00 	 -3.28 	!H_Abstraction estimate: (Average of: (Average of: (Average of: (Average of: (Orad_O_H O_rad/NonDeO)))))  [ C_rad/H/OneDeC , Orad_O_H ] Diffusion factor=0.991, rate=3.08e+11, Keq=7.07e+12, at T=573K.
HO2J(5)+C16H25J(8)=nDBOOH1(3)                        1.000e+13 	  0.00 	  0.00 	!R_Recombination estimate: (Average of: (Y_rad Y_rad))  [ O_rad/NonDe , C_rad/H/Cb/Cs ] Diffusion factor=0.778, rate=7.78e+12, Keq=1.75e+20, at T=573K.
C10bnzn(1)+HOJ(54)=C16H25J(8)+H2O(100)               8.400e+12 	  0.00 	  2.59 	!H_Abstraction exact:   [ C/H2/Cb , O_pri_rad ] Diffusion factor=0.977, rate=8.44e+11, Keq=8.92e+11, at T=573K.
C7H6O(80)+C9H19J(22)=SPC(53)                         7.940e+10 	  0.00 	  6.70 	!R_Addition_MultipleBond estimate: (Average of: (Average of: (CO/H2_O C_rad/H2/Cs)))  [ CO/H/De_O , C_rad/H2/Cs ] Diffusion factor=1.00, rate=2.21e+08, Keq=0.00460, at T=573K.
SPC(16)+HO2J(5)=C10bnzn(1)+O2(2)                     1.750e+10 	  0.00 	 -3.28 	!H_Abstraction estimate: (Average of: (Average of: (Average of: (Average of: (Orad_O_H O_rad/NonDeO)))))  [ C_rad/H/NonDeC , Orad_O_H ] Diffusion factor=0.991, rate=3.08e+11, Keq=3.17e+15, at T=573K.
C10bnzn(1)+HOJ(54)=SPC(16)+H2O(100)                  7.900e+06 	  1.90 	  0.16 	!H_Abstraction exact:   [ C/H2/NonDeC , O_pri_rad ] Diffusion factor=0.969, rate=1.16e+12, Keq=1.99e+09, at T=573K.
SPC(16)+C10bnzn(1)=C10bnzn(1)+C16H25J(8)             1.936e+02 	  2.96 	  6.79 	!H_Abstraction estimate: (Average of: (Average of: (C/H2/NonDeC C_methyl && Average of: (Average of: (Average of: (InChI=1/C3H8/c1-3-2/h3H2,1-2H3 InChI=1/C4H9O/c1-4(2)3-5/h5H,3H2,1-2H3))) && Average of: (Average of: (InChI=1/C4H10O/c1-4(2)3-5/h4-5H,3H2,1-2H3/alpha InChI=1/C2H5/c1-2/h1H2,2H3)) && Average of: (Average of: (InChI=1/C4H10O/c1-4(2)3-5/h4-5H,3H2,1-2H3/alpha InChI=1/C3H7/c1-3-2/h3H,1-2H3) && Average of: (Average of: (InChI=1/C4H10O/c1-4(2)3-5/h4-5H,3H2,1-2H3/alpha InChI=1/C3H5O/c1-2-3-4/h2-3H,1H3/c))) && Average of: (C/H2/OneDeC C_methyl) && Average of: (Average of: (InChI=1/C3H6O/c1-2-3-4/h3H,2H2,1H3/beta InChI=1/C4H9O/c1-4(2)3-5/h4-5H,1,3H2,2H3)) && C/H2/TwoDe C_methyl)))  [ C_rad/H/NonDeC , C/H2/Cb ] Diffusion factor=1.00, rate=3.70e+07, Keq=449, at T=573K.
SPC(12)+HO2J(5)=C10bnzn(1)+O2(2)                     1.750e+10 	  0.00 	 -3.28 	!H_Abstraction estimate: (Average of: (Average of: (Average of: (Average of: (Orad_O_H O_rad/NonDeO)))))  [ C_rad/H/NonDeC , Orad_O_H ] Diffusion factor=0.991, rate=3.08e+11, Keq=3.61e+15, at T=573K.
C10bnzn(1)+HOJ(54)=SPC(12)+H2O(100)                  7.900e+06 	  1.90 	  0.16 	!H_Abstraction exact:   [ C/H2/NonDeC , O_pri_rad ] Diffusion factor=0.969, rate=1.16e+12, Keq=1.75e+09, at T=573K.
SPC(12)+C10bnzn(1)=C10bnzn(1)+C16H25J(8)             1.936e+02 	  2.96 	  6.79 	!H_Abstraction estimate: (Average of: (Average of: (C/H2/NonDeC C_methyl && Average of: (Average of: (Average of: (InChI=1/C3H8/c1-3-2/h3H2,1-2H3 InChI=1/C4H9O/c1-4(2)3-5/h5H,3H2,1-2H3))) && Average of: (Average of: (InChI=1/C4H10O/c1-4(2)3-5/h4-5H,3H2,1-2H3/alpha InChI=1/C2H5/c1-2/h1H2,2H3)) && Average of: (Average of: (InChI=1/C4H10O/c1-4(2)3-5/h4-5H,3H2,1-2H3/alpha InChI=1/C3H7/c1-3-2/h3H,1-2H3) && Average of: (Average of: (InChI=1/C4H10O/c1-4(2)3-5/h4-5H,3H2,1-2H3/alpha InChI=1/C3H5O/c1-2-3-4/h2-3H,1H3/c))) && Average of: (C/H2/OneDeC C_methyl) && Average of: (Average of: (InChI=1/C3H6O/c1-2-3-4/h3H,2H2,1H3/beta InChI=1/C4H9O/c1-4(2)3-5/h4-5H,1,3H2,2H3)) && C/H2/TwoDe C_methyl)))  [ C_rad/H/NonDeC , C/H2/Cb ] Diffusion factor=1.00, rate=3.70e+07, Keq=511, at T=573K.
SPC(12)=C16H25J(8)                                   2.720e+10 	 -0.66 	  14.28 	!intra_H_migration estimate: (Average of: (R5H_SSSS C_rad_out_single Cs_H_out_1H))  [ R5H_SSSS , C_rad_out_H/NonDeC , Cs_H_out_H/OneDe ] Unimolecular: no diffusion limitation. Diffusion factor=1.00, rate=1.47e+03, Keq=511, at T=573K.
SPC(12)+C10bnzn(1)=C10bnzn(1)+SPC(16)                3.040e+01 	  3.19 	  10.31 	!H_Abstraction exact:   [ C_rad/H/NonDeC , C/H2/NonDeC ] Diffusion factor=1.00, rate=1.12e+06, Keq=1.14, at T=573K.
SPC(12)=SPC(16)                                      2.720e+10 	 -0.66 	  14.28 	!intra_H_migration estimate: (Average of: (R5H_SSSS C_rad_out_single Cs_H_out_1H))  [ R5H_SSSS , C_rad_out_H/NonDeC , Cs_H_out_H/NonDeC ] Unimolecular: no diffusion limitation. Diffusion factor=1.00, rate=1.47e+03, Keq=1.14, at T=573K.
SPC(15)+HO2J(5)=C10bnzn(1)+O2(2)                     1.750e+10 	  0.00 	 -3.28 	!H_Abstraction estimate: (Average of: (Average of: (Average of: (Average of: (Orad_O_H O_rad/NonDeO)))))  [ C_rad/H/NonDeC , Orad_O_H ] Diffusion factor=0.991, rate=3.08e+11, Keq=3.61e+15, at T=573K.
C10bnzn(1)+HOJ(54)=SPC(15)+H2O(100)                  7.900e+06 	  1.90 	  0.16 	!H_Abstraction exact:   [ C/H2/NonDeC , O_pri_rad ] Diffusion factor=0.969, rate=1.16e+12, Keq=1.75e+09, at T=573K.
SPC(15)+C10bnzn(1)=C10bnzn(1)+C16H25J(8)             1.936e+02 	  2.96 	  6.79 	!H_Abstraction estimate: (Average of: (Average of: (C/H2/NonDeC C_methyl && Average of: (Average of: (Average of: (InChI=1/C3H8/c1-3-2/h3H2,1-2H3 InChI=1/C4H9O/c1-4(2)3-5/h5H,3H2,1-2H3))) && Average of: (Average of: (InChI=1/C4H10O/c1-4(2)3-5/h4-5H,3H2,1-2H3/alpha InChI=1/C2H5/c1-2/h1H2,2H3)) && Average of: (Average of: (InChI=1/C4H10O/c1-4(2)3-5/h4-5H,3H2,1-2H3/alpha InChI=1/C3H7/c1-3-2/h3H,1-2H3) && Average of: (Average of: (InChI=1/C4H10O/c1-4(2)3-5/h4-5H,3H2,1-2H3/alpha InChI=1/C3H5O/c1-2-3-4/h2-3H,1H3/c))) && Average of: (C/H2/OneDeC C_methyl) && Average of: (Average of: (InChI=1/C3H6O/c1-2-3-4/h3H,2H2,1H3/beta InChI=1/C4H9O/c1-4(2)3-5/h4-5H,1,3H2,2H3)) && C/H2/TwoDe C_methyl)))  [ C_rad/H/NonDeC , C/H2/Cb ] Diffusion factor=1.00, rate=3.70e+07, Keq=511, at T=573K.
SPC(15)+C10bnzn(1)=C10bnzn(1)+SPC(16)                3.040e+01 	  3.19 	  10.31 	!H_Abstraction exact:   [ C_rad/H/NonDeC , C/H2/NonDeC ] Diffusion factor=1.00, rate=1.12e+06, Keq=1.14, at T=573K.
SPC(15)=SPC(16)                                      6.760e+09 	  0.88 	  38.00 	!intra_H_migration exact:   [ Others-R2H_S , C_rad_out_H/NonDeC , Cs_H_out_H/NonDeC ] Unimolecular: no diffusion limitation. Diffusion factor=1.00, rate=0.00578, Keq=1.14, at T=573K.
C10bnzn(1)+SPC(12)=SPC(15)+C10bnzn(1)                4.560e+01 	  3.19 	  10.31 	!H_Abstraction exact:   [ C/H2/NonDeC , C_rad/H/NonDeC ] Diffusion factor=0.00, rate=2.23e+06, Keq=1.00, at T=573K.
SPC(12)=SPC(15)                                      9.660e+09 	  0.13 	  20.70 	!intra_H_migration estimate: (Average of: (R4H_SSS C_rad_out_single Cs_H_out_1H))  [ R4H_SSS , C_rad_out_H/NonDeC , Cs_H_out_H/(NonDeC/Cs) ] Unimolecular: no diffusion limitation. Diffusion factor=1.00, rate=187, Keq=1.00, at T=573K.
SPC(11)+HO2J(5)=C10bnzn(1)+O2(2)                     1.750e+10 	  0.00 	 -3.28 	!H_Abstraction estimate: (Average of: (Average of: (Average of: (Average of: (Orad_O_H O_rad/NonDeO)))))  [ C_rad/H/NonDeC , Orad_O_H ] Diffusion factor=0.991, rate=3.08e+11, Keq=3.61e+15, at T=573K.
C10bnzn(1)+HOJ(54)=SPC(11)+H2O(100)                  7.900e+06 	  1.90 	  0.16 	!H_Abstraction exact:   [ C/H2/NonDeC , O_pri_rad ] Diffusion factor=0.969, rate=1.16e+12, Keq=1.75e+09, at T=573K.
SPC(11)+C10bnzn(1)=C10bnzn(1)+C16H25J(8)             1.936e+02 	  2.96 	  6.79 	!H_Abstraction estimate: (Average of: (Average of: (C/H2/NonDeC C_methyl && Average of: (Average of: (Average of: (InChI=1/C3H8/c1-3-2/h3H2,1-2H3 InChI=1/C4H9O/c1-4(2)3-5/h5H,3H2,1-2H3))) && Average of: (Average of: (InChI=1/C4H10O/c1-4(2)3-5/h4-5H,3H2,1-2H3/alpha InChI=1/C2H5/c1-2/h1H2,2H3)) && Average of: (Average of: (InChI=1/C4H10O/c1-4(2)3-5/h4-5H,3H2,1-2H3/alpha InChI=1/C3H7/c1-3-2/h3H,1-2H3) && Average of: (Average of: (InChI=1/C4H10O/c1-4(2)3-5/h4-5H,3H2,1-2H3/alpha InChI=1/C3H5O/c1-2-3-4/h2-3H,1H3/c))) && Average of: (C/H2/OneDeC C_methyl) && Average of: (Average of: (InChI=1/C3H6O/c1-2-3-4/h3H,2H2,1H3/beta InChI=1/C4H9O/c1-4(2)3-5/h4-5H,1,3H2,2H3)) && C/H2/TwoDe C_methyl)))  [ C_rad/H/NonDeC , C/H2/Cb ] Diffusion factor=1.00, rate=3.70e+07, Keq=511, at T=573K.
SPC(11)=C16H25J(8)                                   6.440e+09 	  0.13 	  20.70 	!intra_H_migration estimate: (Average of: (R4H_SSS C_rad_out_single Cs_H_out_1H))  [ R4H_SSS , C_rad_out_H/NonDeC , Cs_H_out_H/OneDe ] Unimolecular: no diffusion limitation. Diffusion factor=1.00, rate=187, Keq=511, at T=573K.